Data/networks/opendssNetworks/eulv/LVTest_VLN.Txt

SYMMETRICAL COMPONENT VOLTAGES BY BUS (for 3-phase buses)

Bus         Mag:   V1 (kV)    p.u.     V2 (kV)   %V2/V1    V0 (kV)    %V0/V1

sourcebus     0.2522       1.05  1.211E-009  4.803E-007 1.64E-011 6.505E-009
sourcebusz    0.2521      1.049  2.337E-005   0.009271 1.64E-011 6.506E-009
1             0.2518      1.048  9.031E-005    0.03587 6.551E-005   0.02602
2             0.2517      1.048  9.15E-005    0.03634 6.855E-005   0.02723
3             0.2517      1.048  9.163E-005     0.0364 6.899E-005   0.02741
4             0.2517      1.048  9.175E-005    0.03645 6.943E-005   0.02758
5             0.2517      1.048  9.187E-005    0.03649 6.982E-005   0.02773
6             0.2517      1.048  9.204E-005    0.03656 7.047E-005   0.02799
7             0.2514      1.047  0.0001093    0.04346 0.0001564   0.06222
8             0.2514      1.047  0.0001102    0.04385 0.0001611   0.06409
9             0.2514      1.047   0.000111    0.04418  0.000165   0.06565
10            0.2513      1.046  0.0001118    0.04447 0.0001685   0.06703
11            0.2513      1.046  0.0001123    0.04469  0.000171   0.06806
12            0.2513      1.046  0.0001128     0.0449 0.0001735   0.06903
13            0.2513      1.046  0.0001132    0.04502  0.000175   0.06962
14            0.2513      1.046   0.000114    0.04535 0.0001787   0.07111
15            0.2512      1.046  0.0001207    0.04805 0.0002094   0.08335
16            0.2512      1.046  0.0001207    0.04805 0.0002094   0.08335
17            0.2511      1.045  0.0001295    0.05156 0.0002472   0.09846
18            0.2512      1.046  0.0001207    0.04805 0.0002094   0.08335
19            0.2511      1.045  0.0001301    0.05181 0.0002499   0.09951
20            0.2512      1.046  0.0001207    0.04805 0.0002094   0.08335
21            0.2511      1.045  0.0001308    0.05209 0.0002528    0.1007
22            0.2512      1.046  0.0001207    0.04805 0.0002094   0.08335
23            0.2511      1.045  0.0001319    0.05255 0.0002576    0.1026
24            0.2512      1.046  0.0001207    0.04805 0.0002094   0.08335
25             0.251      1.045   0.000134     0.0534 0.0002664    0.1061
26            0.2512      1.046  0.0001207    0.04805 0.0002094   0.08335
27             0.251      1.045  0.0001367    0.05445 0.0002841    0.1132
28            0.2507      1.044   0.000159    0.06344 0.0003418    0.1363
29            0.2512      1.046  0.0001207    0.04805 0.0002094   0.08335
30             0.251      1.045  0.0001372    0.05467 0.0002866    0.1142
31             0.251      1.045  0.0001372    0.05467 0.0002865    0.1141
32            0.2506      1.043  0.0001658    0.06615 0.0003626    0.1447
33            0.2512      1.046  0.0001207    0.04805 0.0002094   0.08335
34             0.251      1.045  0.0001387    0.05526 0.0002922    0.1164
35             0.251      1.045  0.0001372    0.05468 0.0002866    0.1142
36            0.2506      1.043  0.0001807    0.07211 0.0003655    0.1459
37            0.2504      1.042  0.0001793     0.0716 0.0004226    0.1688
38            0.2512      1.046  0.0001207    0.04805 0.0002094   0.08335
39             0.251      1.045  0.0001373    0.05469 0.0002867    0.1142
40            0.2506      1.043  0.0001812    0.07232 0.0003656    0.1459
41            0.2506      1.043  0.0001831    0.07307  0.000366    0.1461
42            0.2502      1.042  0.0001891     0.0756 0.0004642    0.1855
43            0.2504      1.042  0.0001793     0.0716 0.0004226    0.1688
44            0.2512      1.046  0.0001207    0.04805 0.0002094   0.08335
45             0.251      1.045  0.0001373     0.0547 0.0002869    0.1143
46            0.2506      1.043  0.0001815    0.07241 0.0003657    0.1459
47            0.2506      1.043   0.000189    0.07541 0.0003675    0.1466
48              0.25      1.041  0.0001968    0.07872 0.0004957    0.1982
49            0.2504      1.042  0.0001793     0.0716 0.0004226    0.1688
50            0.2512      1.046  0.0001207    0.04805 0.0002094   0.08335
51             0.251      1.045  0.0001374    0.05474 0.0002872    0.1144
52            0.2506      1.043  0.0001817    0.07252 0.0003657    0.1459
53              0.25      1.041  0.0001979    0.07917 0.0005002    0.2001
54              0.25      1.041  0.0001968    0.07872 0.0004957    0.1982
55            0.2504      1.042  0.0001793     0.0716 0.0004226    0.1688
56            0.2512      1.046  0.0001207    0.04805 0.0002094   0.08335
57             0.251      1.045  0.0001375    0.05477 0.0002875    0.1146
58            0.2506      1.043   0.000182    0.07261 0.0003658     0.146
59            0.2499      1.041  0.0002031    0.08126 0.0005208    0.2084
60              0.25      1.041  0.0001968    0.07872 0.0004957    0.1982
61            0.2504      1.042  0.0001793     0.0716 0.0004226    0.1688
62            0.2512      1.046  0.0001207    0.04805 0.0002094   0.08335
63             0.251      1.045  0.0001379    0.05492  0.000289    0.1152
64            0.2506      1.043  0.0001821    0.07267 0.0003658     0.146
65            0.2499      1.041  0.0002039    0.08157  0.000523    0.2093
66            0.2499       1.04   0.000213    0.08525 0.0005438    0.2176
67              0.25      1.041  0.0001968    0.07872 0.0004957    0.1982
68            0.2504      1.042  0.0001793     0.0716 0.0004226    0.1688
69            0.2512      1.046  0.0001207    0.04805 0.0002094   0.08335
70             0.251      1.045  0.0001393    0.05551 0.0002944    0.1173
71            0.2506      1.043  0.0001824    0.07279 0.0003659     0.146
72            0.2497       1.04   0.000213     0.0853 0.0005494      0.22
73            0.2499       1.04  0.0002159     0.0864 0.0005495    0.2199
74            0.2499       1.04  0.0002159     0.0864 0.0005495    0.2199
75              0.25      1.041  0.0001968    0.07872 0.0004957    0.1982
76            0.2504      1.042  0.0001793     0.0716 0.0004226    0.1688
77            0.2512      1.046  0.0001207    0.04805 0.0002094   0.08335
78            0.2506      1.043  0.0001838    0.07337 0.0003662    0.1461
79            0.2496      1.039  0.0002162     0.0866 0.0005587    0.2238
80              0.25      1.041  0.0001968    0.07872 0.0004957    0.1982
81            0.2504      1.042  0.0001793     0.0716 0.0004226    0.1688
82            0.2512      1.046  0.0001207    0.04805 0.0002094   0.08335
83            0.2506      1.043  0.0001894    0.07557 0.0003676    0.1467
84            0.2496      1.039  0.0002169    0.08689 0.0005607    0.2246
85              0.25      1.041  0.0001968    0.07872 0.0004957    0.1982
86            0.2504      1.042  0.0001793     0.0716 0.0004226    0.1688
87            0.2512      1.046  0.0001207    0.04805 0.0002094   0.08335
88            0.2496      1.039  0.0002183    0.08747 0.0005649    0.2263
89              0.25      1.041  0.0001968    0.07872 0.0004957    0.1982
90            0.2504      1.042  0.0001793     0.0716 0.0004226    0.1688
91            0.2512      1.046  0.0001207    0.04805 0.0002094   0.08335
92            0.2496      1.039  0.0002196    0.08801 0.0005687    0.2279
93            0.2504      1.042  0.0001793     0.0716 0.0004226    0.1688
94            0.2512      1.046  0.0001207    0.04805 0.0002094   0.08335
95            0.2495      1.039  0.0002204    0.08833  0.000571    0.2288
96            0.2504      1.042  0.0001793     0.0716 0.0004226    0.1688
97            0.2512      1.046  0.0001207    0.04805 0.0002094   0.08335
98            0.2495      1.039  0.0002209    0.08854 0.0005725    0.2294
99            0.2504      1.042  0.0001793     0.0716 0.0004226    0.1688
100           0.2512      1.046  0.0001207    0.04805 0.0002094   0.08335
101           0.2495      1.039  0.0002216    0.08882 0.0005746    0.2303
102           0.2504      1.042  0.0001793     0.0716 0.0004226    0.1688
103           0.2512      1.046  0.0001207    0.04805 0.0002094   0.08335
104           0.2495      1.039  0.0002216    0.08881 0.0005745    0.2303
105           0.2495      1.039  0.0002221      0.089 0.0005764     0.231
106           0.2504      1.042  0.0001793     0.0716 0.0004226    0.1688
107           0.2495      1.039  0.0002216     0.0888 0.0005744    0.2302
108           0.2495      1.039  0.0002223    0.08909 0.0005775    0.2314
109           0.2504      1.042  0.0001793     0.0716 0.0004226    0.1688
110           0.2495      1.039  0.0002215    0.08878 0.0005744    0.2302
111           0.2493      1.038   0.000232    0.09305  0.000619    0.2483
112           0.2504      1.042  0.0001793     0.0716 0.0004226    0.1688
113           0.2495      1.039  0.0002215    0.08876 0.0005743    0.2302
114           0.2493      1.038   0.000233    0.09345 0.0006231      0.25
115           0.2504      1.042  0.0001793     0.0716 0.0004226    0.1688
116           0.2495      1.039  0.0002214    0.08873 0.0005741    0.2301
117           0.2493      1.038  0.0002328     0.0934 0.0006228    0.2498
118           0.2492      1.038   0.000237    0.09511   0.00064    0.2568
119           0.2504      1.042  0.0001793     0.0716 0.0004226    0.1688
120           0.2495      1.039  0.0002213    0.08871  0.000574    0.2301
121           0.2493      1.038  0.0002328     0.0934 0.0006228    0.2498
122           0.2493      1.038  0.0002328    0.09337 0.0006226    0.2498
123           0.2491      1.037  0.0002445    0.09816 0.0006704    0.2691
124           0.2504      1.042  0.0001793     0.0716 0.0004226    0.1688
125           0.2495      1.039  0.0002213    0.08867 0.0005739      0.23
126           0.2493      1.038  0.0002328     0.0934 0.0006228    0.2498
127           0.2493      1.038  0.0002324    0.09324 0.0006218    0.2494
128           0.2491      1.037   0.000248    0.09955 0.0006842    0.2747
129           0.2504      1.042  0.0001793     0.0716 0.0004226    0.1688
130           0.2495      1.039  0.0002212    0.08864 0.0005737    0.2299
131           0.2493      1.038  0.0002328     0.0934 0.0006228    0.2498
132           0.2493      1.038  0.0002348     0.0942  0.000627    0.2515
133           0.2493      1.038  0.0002306    0.09251 0.0006172    0.2476
134           0.2491      1.037   0.000249    0.09997 0.0006883    0.2764
135           0.2504      1.042  0.0001793     0.0716 0.0004226    0.1688
136           0.2495      1.039  0.0002211    0.08861 0.0005736    0.2299
137           0.2493      1.038  0.0002328     0.0934 0.0006228    0.2498
138           0.2493      1.038   0.000235    0.09428 0.0006275    0.2517
139           0.2493      1.038  0.0002293    0.09197 0.0006138    0.2462
140            0.249      1.037  0.0002501     0.1004  0.000693    0.2782
141           0.2504      1.042  0.0001793     0.0716 0.0004226    0.1688
142           0.2495      1.039   0.000221    0.08856 0.0005734    0.2298
143           0.2493      1.038  0.0002328     0.0934 0.0006228    0.2498
144           0.2493      1.038  0.0002352    0.09437 0.0006279    0.2519
145           0.2493      1.038  0.0002284    0.09161 0.0006116    0.2453
146            0.249      1.037  0.0002512     0.1009 0.0006973      0.28
147           0.2504      1.042  0.0001793     0.0716 0.0004226    0.1688
148           0.2495      1.039  0.0002203    0.08831 0.0005723    0.2294
149           0.2493      1.038  0.0002328     0.0934 0.0006228    0.2498
150           0.2493      1.038  0.0002354    0.09443 0.0006283    0.2521
151           0.2493      1.038  0.0002273     0.0912 0.0006084    0.2441
152           0.2492      1.038  0.0002393    0.09599 0.0006141    0.2464
153            0.249      1.037  0.0002525     0.1014 0.0007024    0.2821
154           0.2504      1.042  0.0001793     0.0716 0.0004226    0.1688
155           0.2495      1.039  0.0002202    0.08826 0.0005721    0.2293
156           0.2493      1.038  0.0002328     0.0934 0.0006228    0.2498
157           0.2493      1.038  0.0002356    0.09454 0.0006288    0.2523
158           0.2493      1.038  0.0002246    0.09011 0.0005999    0.2407
159           0.2492      1.038  0.0002399    0.09626 0.0006142    0.2464
160            0.249      1.037  0.0002529     0.1016 0.0007039    0.2827
161           0.2504      1.042  0.0001793     0.0716 0.0004226    0.1688
162           0.2495      1.039  0.0002334    0.09356 0.0005755    0.2307
163           0.2495      1.039  0.0002196    0.08801 0.0005704    0.2286
164           0.2493      1.038  0.0002328     0.0934 0.0006228    0.2498
165           0.2493      1.038   0.000236    0.09466 0.0006295    0.2525
166           0.2493      1.038  0.0002237    0.08974 0.0005969    0.2395
167           0.2492      1.038  0.0002406    0.09652 0.0006144    0.2465
168            0.249      1.037   0.000255     0.1024 0.0007123    0.2861
169           0.2504      1.042  0.0001793     0.0716 0.0004226    0.1688
170           0.2495      1.039   0.000236     0.0946 0.0005762     0.231
171           0.2495      1.039  0.0002187    0.08767 0.0005683    0.2278
172           0.2493      1.038  0.0002328     0.0934 0.0006228    0.2498
173           0.2493      1.038  0.0002362    0.09475   0.00063    0.2527
174           0.2493      1.038  0.0002237    0.08974 0.0005969    0.2395
175           0.2492      1.038  0.0002102    0.08434 0.0005839    0.2342
176           0.2492      1.038  0.0002408    0.09662 0.0006144    0.2465
177            0.249      1.037  0.0002562     0.1029  0.000717     0.288
178           0.2495      1.039  0.0002414    0.09677 0.0005777    0.2316
179           0.2495      1.039  0.0002189    0.08775  0.000569    0.2281
180           0.2495      1.039  0.0002111    0.08461 0.0005607    0.2247
181           0.2493      1.038  0.0002328     0.0934 0.0006228    0.2498
182           0.2493      1.038  0.0002365    0.09486 0.0006305     0.253
183           0.2493      1.038  0.0002237    0.08974 0.0005969    0.2395
184           0.2492      1.038  0.0002088    0.08376 0.0005825    0.2337
185           0.2492      1.038  0.0002414    0.09685 0.0006146    0.2466
186            0.249      1.037  0.0002571     0.1033 0.0007205    0.2894
187           0.2495      1.039  0.0002198    0.08808 0.0005718    0.2292
188           0.2495      1.039  0.0001796    0.07199 0.0005292    0.2121
189           0.2493      1.038  0.0002328     0.0934 0.0006228    0.2498
190           0.2493      1.038  0.0002367    0.09497  0.000631    0.2532
191           0.2493      1.038  0.0002237    0.08974 0.0005969    0.2395
192           0.2493      1.038  0.0002237    0.08974 0.0005969    0.2395
193           0.2492      1.038  0.0002074     0.0832 0.0005811    0.2331
194           0.2492      1.038  0.0002428    0.09743  0.000615    0.2467
195           0.2489      1.037  0.0002579     0.1036 0.0007237    0.2907
196           0.2495      1.039  0.0002212    0.08867 0.0005768    0.2312
197           0.2495      1.039  0.0001765    0.07076 0.0005261    0.2109
198           0.2495      1.039  0.0001778    0.07128 0.0005274    0.2114
199           0.2493      1.038  0.0002328     0.0934 0.0006228    0.2498
200           0.2493      1.038   0.000237    0.09508 0.0006316    0.2534
...
